<additional>
   
   <inductionLoop id="detector_0" lane=":6078180283_0_0" pos="10" freq="60" file="detector_output.xml"/>
</additional>